FoamFile
{
    version     2.0;
    format      ascii;
    class       dictionary;
    object      physicalProperties;
}

// Match LBM: nu = U * chord / Re = 1 * 4.2 / 100.
nu              [0 2 -1 0 0 0 0] 0.042;
